REMARK  10 active torsions:
REMARK  status: ('A' for Active; 'I' for Inactive)
REMARK       I    between atoms: SG_1  and  SG_11 
REMARK    1  A    between atoms: SG_1  and  CB_2 
REMARK    2  A    between atoms: CB_2  and  CA_3 
REMARK    3  A    between atoms: CA_3  and  C_7 
REMARK    4  A    between atoms: CA_3  and  N_4 
REMARK    5  A    between atoms: C_7  and  O_9 
REMARK    6  A    between atoms: SG_11  and  CB_12 
REMARK    7  A    between atoms: CB_12  and  CA_13 
REMARK    8  A    between atoms: CA_13  and  N_18 
REMARK    9  A    between atoms: CA_13  and  C_14 
REMARK   10  A    between atoms: C_14  and  O_16 
ROOT
ATOM      1  SG  CYS A   1      -1.223  -0.376  -8.942  1.00  0.00    -0.079 SA
ATOM      2  SG  CYS A   1      -2.270  -1.946  -8.131  1.00  0.00    -0.079 SA
ENDROOT
BRANCH   1   3
ATOM      3  CB  CYS A   1      -2.596   0.606  -9.649  1.00  0.00     0.112 C 
BRANCH   3   4
ATOM      4  CA  CYS A   1      -2.146   1.911 -10.303  1.00  0.00     0.306 C 
BRANCH   4   5
ATOM      5  C   CYS A   1      -1.586   2.870  -9.251  1.00  0.00     0.185 C 
ATOM      6  OXT CYS A   1      -1.958   2.984  -8.098  1.00  0.00    -0.648 OA
BRANCH   5   7
ATOM      7  O   CYS A   1      -0.622   3.684  -9.737  1.00  0.00    -0.774 OA
ATOM      8  H   CYS A   1      -0.376   4.229  -8.960  1.00  0.00     0.167 HD
ENDBRANCH   5   7
ENDBRANCH   4   5
BRANCH   4   9
ATOM      9  N   CYS A   1      -1.185   1.682 -11.415  1.00  0.00     0.103 N 
ATOM     10  H2  CYS A   1      -0.826   2.600 -11.693  1.00  0.00     0.314 HD
ATOM     11  H1  CYS A   1      -0.371   1.195 -11.032  1.00  0.00     0.314 HD
ENDBRANCH   4   9
ENDBRANCH   3   4
ENDBRANCH   1   3
BRANCH   2  12
ATOM     12  CB  CYS A   1      -2.321  -3.146  -9.514  1.00  0.00     0.112 C 
BRANCH  12  13
ATOM     13  CA  CYS A   1      -0.977  -3.567 -10.121  1.00  0.00     0.306 C 
BRANCH  13  14
ATOM     14  N   CYS A   1      -1.244  -4.432 -11.312  1.00  0.00     0.103 N 
ATOM     15  H1  CYS A   1      -0.332  -4.790 -11.616  1.00  0.00     0.314 HD
ATOM     16  H2  CYS A   1      -1.740  -5.267 -10.994  1.00  0.00     0.314 HD
ENDBRANCH  13  14
BRANCH  13  17
ATOM     17  C   CYS A   1      -0.091  -4.329  -9.120  1.00  0.00     0.185 C 
ATOM     18  OXT CYS A   1      -0.038  -4.210  -7.921  1.00  0.00    -0.648 OA
BRANCH  17  19
ATOM     19  O   CYS A   1       0.734  -5.206  -9.734  1.00  0.00    -0.774 OA
ATOM     20  H   CYS A   1       1.236  -5.593  -8.984  1.00  0.00     0.167 HD
ENDBRANCH  17  19
ENDBRANCH  13  17
ENDBRANCH  12  13
ENDBRANCH   2  12
TORSDOF 11
