REMARK  24 active torsions:
REMARK  status: ('A' for Active; 'I' for Inactive)
REMARK    1  A    between atoms: N1_1  and  CA1_5 
REMARK    2  A    between atoms: CA1_5  and  CB1_9 
REMARK    3  A    between atoms: CA1_5  and  C1_6 
REMARK    4  A    between atoms: CB1_9  and  CG1_10 
REMARK    5  A    between atoms: CG1_10  and  CD1_11 
REMARK       I    between atoms: CD1_11  and  N2_13 
REMARK    6  A    between atoms: N2_13  and  CA2_15 
REMARK    7  A    between atoms: CA2_15  and  CB2_18 
REMARK    8  A    between atoms: CA2_15  and  C2_16 
REMARK       I    between atoms: C2_16  and  N3_20 
REMARK    9  A    between atoms: CB2_18  and  SG2_19 
REMARK   10  A    between atoms: SG2_19  and  Hg_51 
REMARK   11  A    between atoms: N3_20  and  CA3_22 
REMARK   12  A    between atoms: CA3_22  and  C3_23 
REMARK   13  A    between atoms: N1_26  and  CA1_30 
REMARK   14  A    between atoms: CA1_30  and  CB1_34 
REMARK   15  A    between atoms: CA1_30  and  C1_31 
REMARK   16  A    between atoms: CB1_34  and  CG1_35 
REMARK   17  A    between atoms: CG1_35  and  CD1_36 
REMARK       I    between atoms: CD1_36  and  N2_38 
REMARK   18  A    between atoms: N2_38  and  CA2_40 
REMARK   19  A    between atoms: CA2_40  and  C2_41 
REMARK   20  A    between atoms: CA2_40  and  CB2_43 
REMARK       I    between atoms: C2_41  and  N3_45 
REMARK   21  A    between atoms: CB2_43  and  SG2_44 
REMARK   22  A    between atoms: SG2_44  and  Hg_51 
REMARK   23  A    between atoms: N3_45  and  CA3_47 
REMARK   24  A    between atoms: CA3_47  and  C3_48 
ROOT
HETATM    1 Hg   HG2 A   1      20.089  15.417  32.963  1.00 20.00     0.181 Hg
ENDROOT
BRANCH   1   2
HETATM    2  SG2 GSH A 481      19.061  15.263  30.861  1.00 24.06    -0.170 SA
BRANCH   2   3
HETATM    3  CB2 GSH A 481      17.742  16.502  30.573  1.00 22.08     0.106 C 
BRANCH   3   4
HETATM    4  CA2 GSH A 481      18.268  17.926  30.394  1.00 23.11     0.185 C 
BRANCH   4   5
HETATM    5  C2  GSH A 481      17.041  18.832  30.039  1.00 23.23     0.241 C 
HETATM    6  N3  GSH A 481      16.766  19.794  30.878  1.00 20.24    -0.349 N 
ATOM      7  H3  GSH A 481      17.279  19.918  31.751  1.00  0.00     0.163 HD
HETATM    8  O2  GSH A 481      16.255  18.515  29.070  1.00 36.12    -0.271 OA
BRANCH   6   9
HETATM    9  CA3 GSH A 481      15.533  20.796  30.431  1.00 24.42     0.235 C 
BRANCH   9  10
HETATM   10  C3  GSH A 481      15.168  21.378  31.892  1.00 24.34     0.191 C 
HETATM   11  O32 GSH A 481      16.134  21.209  32.795  1.00 35.31    -0.647 OA
HETATM   12  O31 GSH A 481      14.106  21.979  32.058  1.00 21.84    -0.647 OA
ENDBRANCH   9  10
ENDBRANCH   6   9
ENDBRANCH   4   5
BRANCH   4  13
HETATM   13  N2  GSH A 481      18.964  18.405  31.596  1.00 21.14    -0.347 N 
HETATM   14  CD1 GSH A 481      20.098  19.152  31.558  1.00 17.36     0.218 C 
HETATM   15  OE1 GSH A 481      20.627  19.443  30.465  1.00 20.71    -0.274 OA
ATOM     16  H2  GSH A 481      18.575  18.164  32.508  1.00  0.00     0.163 HD
BRANCH  14  17
HETATM   17  CG1 GSH A 481      20.632  19.622  32.864  1.00 20.05     0.105 C 
BRANCH  17  18
HETATM   18  CB1 GSH A 481      20.131  21.125  33.056  1.00 19.75     0.053 C 
BRANCH  18  19
HETATM   19  CA1 GSH A 481      20.682  21.735  34.331  1.00 18.97     0.283 C 
BRANCH  19  20
HETATM   20  C1  GSH A 481      20.298  23.239  34.381  1.00 19.22     0.204 C 
HETATM   21  O11 GSH A 481      19.622  23.637  35.320  1.00 21.63    -0.646 OA
HETATM   22  O12 GSH A 481      20.739  23.932  33.410  1.00 18.57    -0.646 OA
ENDBRANCH  19  20
BRANCH  19  23
HETATM   23  N1  GSH A 481      20.083  21.092  35.518  1.00 21.16    -0.065 N 
ATOM     24  H13 GSH A 481      19.064  21.126  35.492  1.00  0.00     0.275 HD
ATOM     25  H12 GSH A 481      20.203  20.079  35.501  1.00  0.00     0.275 HD
ATOM     26  H11 GSH A 481      20.453  21.502  36.375  1.00  0.00     0.275 HD
ENDBRANCH  19  23
ENDBRANCH  18  19
ENDBRANCH  17  18
ENDBRANCH  14  17
ENDBRANCH   4  13
ENDBRANCH   3   4
ENDBRANCH   2   3
ENDBRANCH   1   2
BRANCH   1  27
HETATM   27  SG2 GSH A 482      21.117  15.572  35.065  1.00 28.94    -0.170 SA
BRANCH  27  28
HETATM   28  CB2 GSH A 482      20.138  14.487  36.172  1.00 29.10     0.106 C 
BRANCH  28  29
HETATM   29  CA2 GSH A 482      20.564  14.828  37.644  1.00 26.99     0.185 C 
BRANCH  29  30
HETATM   30  C2  GSH A 482      19.529  14.259  38.551  1.00 31.05     0.241 C 
HETATM   31  O2  GSH A 482      18.304  14.251  38.269  1.00 34.04    -0.271 OA
HETATM   32  N3  GSH A 482      20.001  13.766  39.763  1.00 34.93    -0.349 N 
ATOM     33  H3  GSH A 482      20.994  13.728  39.994  1.00  0.00     0.163 HD
BRANCH  32  34
HETATM   34  CA3 GSH A 482      18.934  13.295  40.702  1.00 37.90     0.235 C 
BRANCH  34  35
HETATM   35  C3  GSH A 482      19.165  11.761  41.013  1.00 39.11     0.191 C 
HETATM   36  O31 GSH A 482      19.916  11.061  40.221  1.00 40.42    -0.647 OA
HETATM   37  O32 GSH A 482      18.530  11.374  42.102  1.00 41.17    -0.647 OA
ENDBRANCH  34  35
ENDBRANCH  32  34
ENDBRANCH  29  30
BRANCH  29  38
HETATM   38  N2  GSH A 482      21.912  14.346  37.942  1.00 24.23    -0.347 N 
HETATM   39  CD1 GSH A 482      22.984  15.238  38.000  1.00 22.94     0.218 C 
HETATM   40  OE1 GSH A 482      22.928  16.367  37.562  1.00 29.80    -0.274 OA
ATOM     41  H2  GSH A 482      22.070  13.352  38.108  1.00  0.00     0.163 HD
BRANCH  39  42
HETATM   42  CG1 GSH A 482      24.219  14.540  38.532  1.00 24.09     0.105 C 
BRANCH  42  43
HETATM   43  CB1 GSH A 482      24.998  15.528  39.488  1.00 20.42     0.053 C 
BRANCH  43  44
HETATM   44  CA1 GSH A 482      26.125  16.287  38.787  1.00 19.59     0.283 C 
BRANCH  44  45
HETATM   45  C1  GSH A 482      27.053  15.290  38.007  1.00 18.74     0.204 C 
HETATM   46  O12 GSH A 482      27.662  14.396  38.686  1.00 27.16    -0.646 OA
HETATM   47  O11 GSH A 482      27.023  15.474  36.721  1.00 22.79    -0.646 OA
ENDBRANCH  44  45
BRANCH  44  48
HETATM   48  N1  GSH A 482      25.545  17.363  37.904  1.00 19.85    -0.065 N 
ATOM     49  H13 GSH A 482      24.864  16.990  37.242  1.00  0.00     0.275 HD
ATOM     50  H12 GSH A 482      24.924  17.988  38.418  1.00  0.00     0.275 HD
ATOM     51  H11 GSH A 482      26.297  17.869  37.436  1.00  0.00     0.275 HD
ENDBRANCH  44  48
ENDBRANCH  43  44
ENDBRANCH  42  43
ENDBRANCH  39  42
ENDBRANCH  29  38
ENDBRANCH  28  29
ENDBRANCH  27  28
ENDBRANCH   1  27
TORSDOF 24
