REMARK  22 active torsions:
REMARK  status: ('A' for Active; 'I' for Inactive)
REMARK    1  A    between atoms: SG2_1  and  CB2_27 
REMARK       I    between atoms: SG2_1  and  SG2_2 
REMARK    2  A    between atoms: SG2_2  and  CB2_3 
REMARK    3  A    between atoms: CB2_3  and  CA2_4 
REMARK    4  A    between atoms: CA2_4  and  C2_5 
REMARK    5  A    between atoms: CA2_4  and  N2_13 
REMARK       I    between atoms: C2_5  and  N3_6 
REMARK    6  A    between atoms: N3_6  and  CA3_9 
REMARK    7  A    between atoms: CA3_9  and  C3_10 
REMARK       I    between atoms: N2_13  and  CD1_14 
REMARK    8  A    between atoms: CD1_14  and  CG1_17 
REMARK    9  A    between atoms: CG1_17  and  CB1_18 
REMARK   10  A    between atoms: CB1_18  and  CA1_19 
REMARK   11  A    between atoms: CA1_19  and  N1_23 
REMARK   12  A    between atoms: CA1_19  and  C1_20 
REMARK   13  A    between atoms: CB2_27  and  CA2_28 
REMARK   14  A    between atoms: CA2_28  and  N2_29 
REMARK   15  A    between atoms: CA2_28  and  C2_43 
REMARK       I    between atoms: N2_29  and  CD1_30 
REMARK   16  A    between atoms: CD1_30  and  CG1_33 
REMARK   17  A    between atoms: CG1_33  and  CB1_34 
REMARK   18  A    between atoms: CB1_34  and  CA1_35 
REMARK   19  A    between atoms: CA1_35  and  N1_39 
REMARK   20  A    between atoms: CA1_35  and  C1_36 
REMARK       I    between atoms: C2_43  and  N3_44 
REMARK   21  A    between atoms: N3_44  and  CA3_47 
REMARK   22  A    between atoms: CA3_47  and  C3_48 
ROOT
HETATM    1  SG2 GSH A 481      19.061  15.263  30.861  1.00 24.06    -0.080 SA
HETATM    2  SG2 GSH A 482      19.920  15.392  32.617  1.00 28.94    -0.080 SA
ENDROOT
BRANCH   1   3
HETATM    3  CB2 GSH A 481      17.742  16.502  30.573  1.00 22.08     0.100 C 
BRANCH   3   4
HETATM    4  CA2 GSH A 481      18.268  17.926  30.394  1.00 23.11     0.171 C 
BRANCH   4   5
HETATM    5  N2  GSH A 481      18.964  18.405  31.596  1.00 21.14    -0.338 N 
ATOM      6  H2  GSH A 481      18.575  18.164  32.508  1.00  0.00     0.164 HD
HETATM    7  CD1 GSH A 481      20.098  19.152  31.558  1.00 17.36     0.231 C 
HETATM    8  OE1 GSH A 481      20.627  19.443  30.465  1.00 20.71    -0.273 OA
BRANCH   7   9
HETATM    9  CG1 GSH A 481      20.632  19.622  32.864  1.00 20.05     0.090 C 
BRANCH   9  10
HETATM   10  CB1 GSH A 481      20.131  21.125  33.056  1.00 19.75     0.051 C 
BRANCH  10  11
HETATM   11  CA1 GSH A 481      20.682  21.735  34.331  1.00 18.97     0.264 C 
BRANCH  11  12
HETATM   12  N1  GSH A 481      20.083  21.092  35.518  1.00 21.16    -0.056 N 
ATOM     13  H13 GSH A 481      19.064  21.126  35.492  1.00  0.00     0.276 HD
ATOM     14  H12 GSH A 481      20.203  20.079  35.501  1.00  0.00     0.276 HD
ATOM     15  H11 GSH A 481      20.453  21.502  36.375  1.00  0.00     0.276 HD
ENDBRANCH  11  12
BRANCH  11  16
HETATM   16  C1  GSH A 481      20.298  23.239  34.381  1.00 19.22     0.214 C 
HETATM   17  O12 GSH A 481      20.739  23.932  33.410  1.00 18.57    -0.646 OA
HETATM   18  O11 GSH A 481      19.622  23.637  35.320  1.00 21.63    -0.646 OA
ENDBRANCH  11  16
ENDBRANCH  10  11
ENDBRANCH   9  10
ENDBRANCH   7   9
ENDBRANCH   4   5
BRANCH   4  19
HETATM   19  C2  GSH A 481      17.041  18.832  30.039  1.00 23.23     0.252 C 
HETATM   20  O2  GSH A 481      16.255  18.515  29.070  1.00 36.12    -0.271 OA
HETATM   21  N3  GSH A 481      16.766  19.794  30.878  1.00 20.24    -0.334 N 
ATOM     22  H3  GSH A 481      17.279  19.918  31.751  1.00  0.00     0.164 HD
BRANCH  21  23
HETATM   23  CA3 GSH A 481      15.533  20.796  30.431  1.00 24.42     0.199 C 
BRANCH  23  24
HETATM   24  C3  GSH A 481      15.168  21.378  31.892  1.00 24.34     0.209 C 
HETATM   25  O32 GSH A 481      16.134  21.209  32.795  1.00 35.31    -0.646 OA
HETATM   26  O31 GSH A 481      14.106  21.979  32.058  1.00 21.84    -0.646 OA
ENDBRANCH  23  24
ENDBRANCH  21  23
ENDBRANCH   4  19
ENDBRANCH   3   4
ENDBRANCH   1   3
BRANCH   2  27
HETATM   27  CB2 GSH A 482      18.940  14.307  33.724  1.00 29.10     0.100 C 
BRANCH  27  28
HETATM   28  CA2 GSH A 482      19.367  14.648  35.196  1.00 26.99     0.171 C 
BRANCH  28  29
HETATM   29  C2  GSH A 482      18.332  14.079  36.103  1.00 31.05     0.252 C 
HETATM   30  O2  GSH A 482      17.107  14.071  35.822  1.00 34.04    -0.271 OA
HETATM   31  N3  GSH A 482      18.804  13.586  37.315  1.00 34.93    -0.334 N 
ATOM     32  H3  GSH A 482      19.797  13.548  37.546  1.00  0.00     0.164 HD
BRANCH  31  33
HETATM   33  CA3 GSH A 482      17.737  13.115  38.254  1.00 37.90     0.199 C 
BRANCH  33  34
HETATM   34  C3  GSH A 482      17.967  11.581  38.565  1.00 39.11     0.209 C 
HETATM   35  O32 GSH A 482      17.332  11.194  39.655  1.00 41.17    -0.646 OA
HETATM   36  O31 GSH A 482      18.718  10.881  37.773  1.00 40.42    -0.646 OA
ENDBRANCH  33  34
ENDBRANCH  31  33
ENDBRANCH  28  29
BRANCH  28  37
HETATM   37  N2  GSH A 482      20.714  14.166  35.494  1.00 24.23    -0.338 N 
ATOM     38  H2  GSH A 482      20.871  13.172  35.661  1.00  0.00     0.164 HD
HETATM   39  CD1 GSH A 482      21.787  15.058  35.552  1.00 22.94     0.231 C 
HETATM   40  OE1 GSH A 482      21.730  16.187  35.114  1.00 29.80    -0.273 OA
BRANCH  39  41
HETATM   41  CG1 GSH A 482      23.021  14.360  36.084  1.00 24.09     0.090 C 
BRANCH  41  42
HETATM   42  CB1 GSH A 482      23.800  15.348  37.040  1.00 20.42     0.051 C 
BRANCH  42  43
HETATM   43  CA1 GSH A 482      24.928  16.107  36.339  1.00 19.59     0.264 C 
BRANCH  43  44
HETATM   44  N1  GSH A 482      24.348  17.183  35.456  1.00 19.85    -0.056 N 
ATOM     45  H13 GSH A 482      23.667  16.810  34.794  1.00  0.00     0.276 HD
ATOM     46  H12 GSH A 482      23.727  17.808  35.970  1.00  0.00     0.276 HD
ATOM     47  H11 GSH A 482      25.100  17.689  34.989  1.00  0.00     0.276 HD
ENDBRANCH  43  44
BRANCH  43  48
HETATM   48  C1  GSH A 482      25.855  15.110  35.559  1.00 18.74     0.214 C 
HETATM   49  O11 GSH A 482      25.826  15.294  34.273  1.00 22.79    -0.646 OA
HETATM   50  O12 GSH A 482      26.464  14.216  36.239  1.00 27.16    -0.646 OA
ENDBRANCH  43  48
ENDBRANCH  42  43
ENDBRANCH  41  42
ENDBRANCH  39  41
ENDBRANCH  28  37
ENDBRANCH  27  28
ENDBRANCH   2  27
TORSDOF 23
