REMARK  12 active torsions:
REMARK  status: ('A' for Active; 'I' for Inactive)
REMARK    1  A    between atoms: CA_1  and  N_2 
REMARK    2  A    between atoms: CA_1  and  CB_3 
REMARK    3  A    between atoms: CA_1  and  C_12 
REMARK    4  A    between atoms: CB_3  and  SG_4 
REMARK    5  A    between atoms: SG_4  and  Hg_21 
REMARK    6  A    between atoms: SG_5  and  CB_6 
REMARK    7  A    between atoms: SG_5  and  Hg_21 
REMARK    8  A    between atoms: CB_6  and  CA_7 
REMARK    9  A    between atoms: CA_7  and  C_9 
REMARK   10  A    between atoms: CA_7  and  N_8 
REMARK   11  A    between atoms: C_9  and  O_10 
REMARK   12  A    between atoms: C_12  and  O_13 
ROOT
HETATM    1 Hg   HG2 A   1      -2.418  -2.168  -8.016  1.00 20.00     0.181 Hg
ENDROOT
BRANCH   1   2
ATOM      2  SG  CYS A   1      -3.614  -3.961  -7.090  1.00  0.00    -0.170 SA
BRANCH   2   3
ATOM      3  CB  CYS A   1      -3.665  -5.161  -8.473  1.00  0.00     0.118 C 
BRANCH   3   4
ATOM      4  CA  CYS A   1      -2.321  -5.582  -9.080  1.00  0.00     0.323 C 
BRANCH   4   5
ATOM      5  C   CYS A   1      -1.435  -6.344  -8.079  1.00  0.00     0.174 C 
ATOM      6  OXT CYS A   1      -1.382  -6.225  -6.880  1.00  0.00    -0.648 OA
BRANCH   5   7
ATOM      7  O   CYS A   1      -0.610  -7.221  -8.693  1.00  0.00    -0.775 OA
ATOM      8  H   CYS A   1      -0.108  -7.608  -7.943  1.00  0.00     0.167 HD
ENDBRANCH   5   7
ENDBRANCH   4   5
BRANCH   4   9
ATOM      9  N   CYS A   1      -2.588  -6.447 -10.271  1.00  0.00     0.093 N 
ATOM     10  H2  CYS A   1      -3.084  -7.282  -9.953  1.00  0.00     0.314 HD
ATOM     11  H1  CYS A   1      -1.676  -6.805 -10.575  1.00  0.00     0.314 HD
ENDBRANCH   4   9
ENDBRANCH   3   4
ENDBRANCH   2   3
ENDBRANCH   1   2
BRANCH   1  12
ATOM     12  SG  CYS A   1      -1.223  -0.376  -8.942  1.00  0.00    -0.170 SA
BRANCH  12  13
ATOM     13  CB  CYS A   1      -2.596   0.606  -9.649  1.00  0.00     0.118 C 
BRANCH  13  14
ATOM     14  CA  CYS A   1      -2.146   1.911 -10.303  1.00  0.00     0.323 C 
BRANCH  14  15
ATOM     15  N   CYS A   1      -1.185   1.682 -11.415  1.00  0.00     0.093 N 
ATOM     16  H1  CYS A   1      -0.371   1.195 -11.032  1.00  0.00     0.314 HD
ATOM     17  H2  CYS A   1      -0.826   2.600 -11.693  1.00  0.00     0.314 HD
ENDBRANCH  14  15
BRANCH  14  18
ATOM     18  C   CYS A   1      -1.586   2.870  -9.251  1.00  0.00     0.174 C 
ATOM     19  OXT CYS A   1      -1.958   2.984  -8.098  1.00  0.00    -0.648 OA
BRANCH  18  20
ATOM     20  O   CYS A   1      -0.622   3.684  -9.737  1.00  0.00    -0.775 OA
ATOM     21  H   CYS A   1      -0.376   4.229  -8.960  1.00  0.00     0.167 HD
ENDBRANCH  18  20
ENDBRANCH  14  18
ENDBRANCH  13  14
ENDBRANCH  12  13
ENDBRANCH   1  12
TORSDOF 12
